[TITLE]

[JUNCTIONS]
;ID                      Elevation       Demand Pattern                 
 J0_0                     32.80839895    7.9251615707                            ;
 J0_1                     32.80839895    7.9251615707                            ;
 J0_2                     32.80839895    7.9251615707                            ;
 J0_3                     32.80839895    7.9251615707                            ;
 J0_4                     32.80839895    7.9251615707                            ;
 J0_5                     32.80839895    7.9251615707                            ;
 J0_6                     32.80839895    7.9251615707                            ;
 J0_7                     32.80839895    7.9251615707                            ;
 J0_8                     32.80839895    7.9251615707                            ;
 J0_9                     32.80839895    7.9251615707                            ;
 J0_10                    32.80839895    7.9251615707                            ;
 J0_11                    32.80839895    7.9251615707                            ;
 J0_12                    32.80839895    7.9251615707                            ;
 J0_13                    32.80839895    7.9251615707                            ;
 J0_14                    32.80839895    7.9251615707                            ;
 J0_15                    32.80839895    7.9251615707                            ;
 J0_16                    32.80839895    7.9251615707                            ;
 J0_17                    32.80839895    7.9251615707                            ;
 J0_18                    32.80839895    7.9251615707                            ;
 J0_19                    32.80839895    7.9251615707                            ;
 J0_20                    32.80839895    7.9251615707                            ;
 J0_21                    32.80839895    7.9251615707                            ;
 J0_22                    32.80839895    7.9251615707                            ;
 J0_23                    32.80839895    7.9251615707                            ;
 J0_24                    32.80839895    7.9251615707                            ;
 J1_0                    34.448818898    7.9251615707                            ;
 J1_1                    34.448818898    7.9251615707                            ;
 J1_2                    34.448818898    7.9251615707                            ;
 J1_3                    34.448818898    7.9251615707                            ;
 J1_4                    34.448818898    7.9251615707                            ;
 J1_5                    34.448818898    7.9251615707                            ;
 J1_6                    34.448818898    7.9251615707                            ;
 J1_7                    34.448818898    7.9251615707                            ;
 J1_8                    34.448818898    7.9251615707                            ;
 J1_9                    34.448818898    7.9251615707                            ;
 J1_10                   34.448818898    7.9251615707                            ;
 J1_11                   34.448818898    7.9251615707                            ;
 J1_12                   34.448818898    7.9251615707                            ;
 J1_13                   34.448818898    7.9251615707                            ;
 J1_14                   34.448818898    7.9251615707                            ;
 J1_15                   34.448818898    7.9251615707                            ;
 J1_16                   34.448818898    7.9251615707                            ;
 J1_17                   34.448818898    7.9251615707                            ;
 J1_18                   34.448818898    7.9251615707                            ;
 J1_19                   34.448818898    7.9251615707                            ;
 J1_20                   34.448818898    7.9251615707                            ;
 J1_21                   34.448818898    7.9251615707                            ;
 J1_22                   34.448818898    7.9251615707                            ;
 J1_23                   34.448818898    7.9251615707                            ;
 J1_24                   34.448818898    7.9251615707                            ;
 J2_0                    36.089238845    7.9251615707                            ;
 J2_1                    36.089238845    7.9251615707                            ;
 J2_2                    36.089238845    7.9251615707                            ;
 J2_3                    36.089238845    7.9251615707                            ;
 J2_4                    36.089238845    7.9251615707                            ;
 J2_5                    36.089238845    7.9251615707                            ;
 J2_6                    36.089238845    7.9251615707                            ;
 J2_7                    36.089238845    7.9251615707                            ;
 J2_8                    36.089238845    7.9251615707                            ;
 J2_9                    36.089238845    7.9251615707                            ;
 J2_10                   36.089238845    7.9251615707                            ;
 J2_11                   36.089238845    7.9251615707                            ;
 J2_12                   36.089238845    7.9251615707                            ;
 J2_13                   36.089238845    7.9251615707                            ;
 J2_14                   36.089238845    7.9251615707                            ;
 J2_15                   36.089238845    7.9251615707                            ;
 J2_16                   36.089238845    7.9251615707                            ;
 J2_17                   36.089238845    7.9251615707                            ;
 J2_18                   36.089238845    7.9251615707                            ;
 J2_19                   36.089238845    7.9251615707                            ;
 J2_20                   36.089238845    7.9251615707                            ;
 J2_21                   36.089238845    7.9251615707                            ;
 J2_22                   36.089238845    7.9251615707                            ;
 J2_23                   36.089238845    7.9251615707                            ;
 J2_24                   36.089238845    7.9251615707                            ;
 J3_0                    37.729658793    7.9251615707                            ;
 J3_1                    37.729658793    7.9251615707                            ;
 J3_2                    37.729658793    7.9251615707                            ;
 J3_3                    37.729658793    7.9251615707                            ;
 J3_4                    37.729658793    7.9251615707                            ;
 J3_5                    37.729658793    7.9251615707                            ;
 J3_6                    37.729658793    7.9251615707                            ;
 J3_7                    37.729658793    7.9251615707                            ;
 J3_8                    37.729658793    7.9251615707                            ;
 J3_9                    37.729658793    7.9251615707                            ;
 J3_10                   37.729658793    7.9251615707                            ;
 J3_11                   37.729658793    7.9251615707                            ;
 J3_12                   37.729658793    7.9251615707                            ;
 J3_13                   37.729658793    7.9251615707                            ;
 J3_14                   37.729658793    7.9251615707                            ;
 J3_15                   37.729658793    7.9251615707                            ;
 J3_16                   37.729658793    7.9251615707                            ;
 J3_17                   37.729658793    7.9251615707                            ;
 J3_18                   37.729658793    7.9251615707                            ;
 J3_19                   37.729658793    7.9251615707                            ;
 J3_20                   37.729658793    7.9251615707                            ;
 J3_21                   37.729658793    7.9251615707                            ;
 J3_22                   37.729658793    7.9251615707                            ;
 J3_23                   37.729658793    7.9251615707                            ;
 J3_24                   37.729658793    7.9251615707                            ;
 J4_0                     39.37007874    7.9251615707                            ;
 J4_1                     39.37007874    7.9251615707                            ;
 J4_2                     39.37007874    7.9251615707                            ;
 J4_3                     39.37007874    7.9251615707                            ;
 J4_4                     39.37007874    7.9251615707                            ;
 J4_5                     39.37007874    7.9251615707                            ;
 J4_6                     39.37007874    7.9251615707                            ;
 J4_7                     39.37007874    7.9251615707                            ;
 J4_8                     39.37007874    7.9251615707                            ;
 J4_9                     39.37007874    7.9251615707                            ;
 J4_10                    39.37007874    7.9251615707                            ;
 J4_11                    39.37007874    7.9251615707                            ;
 J4_12                    39.37007874    7.9251615707                            ;
 J4_13                    39.37007874    7.9251615707                            ;
 J4_14                    39.37007874    7.9251615707                            ;
 J4_15                    39.37007874    7.9251615707                            ;
 J4_16                    39.37007874    7.9251615707                            ;
 J4_17                    39.37007874    7.9251615707                            ;
 J4_18                    39.37007874    7.9251615707                            ;
 J4_19                    39.37007874    7.9251615707                            ;
 J4_20                    39.37007874    7.9251615707                            ;
 J4_21                    39.37007874    7.9251615707                            ;
 J4_22                    39.37007874    7.9251615707                            ;
 J4_23                    39.37007874    7.9251615707                            ;
 J4_24                    39.37007874    7.9251615707                            ;
 J5_0                    41.010498688    7.9251615707                            ;
 J5_1                    41.010498688    7.9251615707                            ;
 J5_2                    41.010498688    7.9251615707                            ;
 J5_3                    41.010498688    7.9251615707                            ;
 J5_4                    41.010498688    7.9251615707                            ;
 J5_5                    41.010498688    7.9251615707                            ;
 J5_6                    41.010498688    7.9251615707                            ;
 J5_7                    41.010498688    7.9251615707                            ;
 J5_8                    41.010498688    7.9251615707                            ;
 J5_9                    41.010498688    7.9251615707                            ;
 J5_10                   41.010498688    7.9251615707                            ;
 J5_11                   41.010498688    7.9251615707                            ;
 J5_12                   41.010498688    7.9251615707                            ;
 J5_13                   41.010498688    7.9251615707                            ;
 J5_14                   41.010498688    7.9251615707                            ;
 J5_15                   41.010498688    7.9251615707                            ;
 J5_16                   41.010498688    7.9251615707                            ;
 J5_17                   41.010498688    7.9251615707                            ;
 J5_18                   41.010498688    7.9251615707                            ;
 J5_19                   41.010498688    7.9251615707                            ;
 J5_20                   41.010498688    7.9251615707                            ;
 J5_21                   41.010498688    7.9251615707                            ;
 J5_22                   41.010498688    7.9251615707                            ;
 J5_23                   41.010498688    7.9251615707                            ;
 J5_24                   41.010498688    7.9251615707                            ;
 J6_0                    42.650918635    7.9251615707                            ;
 J6_1                    42.650918635    7.9251615707                            ;
 J6_2                    42.650918635    7.9251615707                            ;
 J6_3                    42.650918635    7.9251615707                            ;
 J6_4                    42.650918635    7.9251615707                            ;
 J6_5                    42.650918635    7.9251615707                            ;
 J6_6                    42.650918635    7.9251615707                            ;
 J6_7                    42.650918635    7.9251615707                            ;
 J6_8                    42.650918635    7.9251615707                            ;
 J6_9                    42.650918635    7.9251615707                            ;
 J6_10                   42.650918635    7.9251615707                            ;
 J6_11                   42.650918635    7.9251615707                            ;
 J6_12                   42.650918635    7.9251615707                            ;
 J6_13                   42.650918635    7.9251615707                            ;
 J6_14                   42.650918635    7.9251615707                            ;
 J6_15                   42.650918635    7.9251615707                            ;
 J6_16                   42.650918635    7.9251615707                            ;
 J6_17                   42.650918635    7.9251615707                            ;
 J6_18                   42.650918635    7.9251615707                            ;
 J6_19                   42.650918635    7.9251615707                            ;
 J6_20                   42.650918635    7.9251615707                            ;
 J6_21                   42.650918635    7.9251615707                            ;
 J6_22                   42.650918635    7.9251615707                            ;
 J6_23                   42.650918635    7.9251615707                            ;
 J6_24                   42.650918635    7.9251615707                            ;
 J7_0                    44.291338583    7.9251615707                            ;
 J7_1                    44.291338583    7.9251615707                            ;
 J7_2                    44.291338583    7.9251615707                            ;
 J7_3                    44.291338583    7.9251615707                            ;
 J7_4                    44.291338583    7.9251615707                            ;
 J7_5                    44.291338583    7.9251615707                            ;
 J7_6                    44.291338583    7.9251615707                            ;
 J7_7                    44.291338583    7.9251615707                            ;
 J7_8                    44.291338583    7.9251615707                            ;
 J7_9                    44.291338583    7.9251615707                            ;
 J7_10                   44.291338583    7.9251615707                            ;
 J7_11                   44.291338583    7.9251615707                            ;
 J7_12                   44.291338583    7.9251615707                            ;
 J7_13                   44.291338583    7.9251615707                            ;
 J7_14                   44.291338583    7.9251615707                            ;
 J7_15                   44.291338583    7.9251615707                            ;
 J7_16                   44.291338583    7.9251615707                            ;
 J7_17                   44.291338583    7.9251615707                            ;
 J7_18                   44.291338583    7.9251615707                            ;
 J7_19                   44.291338583    7.9251615707                            ;
 J7_20                   44.291338583    7.9251615707                            ;
 J7_21                   44.291338583    7.9251615707                            ;
 J7_22                   44.291338583    7.9251615707                            ;
 J7_23                   44.291338583    7.9251615707                            ;
 J7_24                   44.291338583    7.9251615707                            ;
 J8_0                     45.93175853    7.9251615707                            ;
 J8_1                     45.93175853    7.9251615707                            ;
 J8_2                     45.93175853    7.9251615707                            ;
 J8_3                     45.93175853    7.9251615707                            ;
 J8_4                     45.93175853    7.9251615707                            ;
 J8_5                     45.93175853    7.9251615707                            ;
 J8_6                     45.93175853    7.9251615707                            ;
 J8_7                     45.93175853    7.9251615707                            ;
 J8_8                     45.93175853    7.9251615707                            ;
 J8_9                     45.93175853    7.9251615707                            ;
 J8_10                    45.93175853    7.9251615707                            ;
 J8_11                    45.93175853    7.9251615707                            ;
 J8_12                    45.93175853    7.9251615707                            ;
 J8_13                    45.93175853    7.9251615707                            ;
 J8_14                    45.93175853    7.9251615707                            ;
 J8_15                    45.93175853    7.9251615707                            ;
 J8_16                    45.93175853    7.9251615707                            ;
 J8_17                    45.93175853    7.9251615707                            ;
 J8_18                    45.93175853    7.9251615707                            ;
 J8_19                    45.93175853    7.9251615707                            ;
 J8_20                    45.93175853    7.9251615707                            ;
 J8_21                    45.93175853    7.9251615707                            ;
 J8_22                    45.93175853    7.9251615707                            ;
 J8_23                    45.93175853    7.9251615707                            ;
 J8_24                    45.93175853    7.9251615707                            ;
 J9_0                    47.572178478    7.9251615707                            ;
 J9_1                    47.572178478    7.9251615707                            ;
 J9_2                    47.572178478    7.9251615707                            ;
 J9_3                    47.572178478    7.9251615707                            ;
 J9_4                    47.572178478    7.9251615707                            ;
 J9_5                    47.572178478    7.9251615707                            ;
 J9_6                    47.572178478    7.9251615707                            ;
 J9_7                    47.572178478    7.9251615707                            ;
 J9_8                    47.572178478    7.9251615707                            ;
 J9_9                    47.572178478    7.9251615707                            ;
 J9_10                   47.572178478    7.9251615707                            ;
 J9_11                   47.572178478    7.9251615707                            ;
 J9_12                   47.572178478    7.9251615707                            ;
 J9_13                   47.572178478    7.9251615707                            ;
 J9_14                   47.572178478    7.9251615707                            ;
 J9_15                   47.572178478    7.9251615707                            ;
 J9_16                   47.572178478    7.9251615707                            ;
 J9_17                   47.572178478    7.9251615707                            ;
 J9_18                   47.572178478    7.9251615707                            ;
 J9_19                   47.572178478    7.9251615707                            ;
 J9_20                   47.572178478    7.9251615707                            ;
 J9_21                   47.572178478    7.9251615707                            ;
 J9_22                   47.572178478    7.9251615707                            ;
 J9_23                   47.572178478    7.9251615707                            ;
 J9_24                   47.572178478    7.9251615707                            ;
 J10_0                   49.212598425    7.9251615707                            ;
 J10_1                   49.212598425    7.9251615707                            ;
 J10_2                   49.212598425    7.9251615707                            ;
 J10_3                   49.212598425    7.9251615707                            ;
 J10_4                   49.212598425    7.9251615707                            ;
 J10_5                   49.212598425    7.9251615707                            ;
 J10_6                   49.212598425    7.9251615707                            ;
 J10_7                   49.212598425    7.9251615707                            ;
 J10_8                   49.212598425    7.9251615707                            ;
 J10_9                   49.212598425    7.9251615707                            ;
 J10_10                  49.212598425    7.9251615707                            ;
 J10_11                  49.212598425    7.9251615707                            ;
 J10_12                  49.212598425    7.9251615707                            ;
 J10_13                  49.212598425    7.9251615707                            ;
 J10_14                  49.212598425    7.9251615707                            ;
 J10_15                  49.212598425    7.9251615707                            ;
 J10_16                  49.212598425    7.9251615707                            ;
 J10_17                  49.212598425    7.9251615707                            ;
 J10_18                  49.212598425    7.9251615707                            ;
 J10_19                  49.212598425    7.9251615707                            ;
 J10_20                  49.212598425    7.9251615707                            ;
 J10_21                  49.212598425    7.9251615707                            ;
 J10_22                  49.212598425    7.9251615707                            ;
 J10_23                  49.212598425    7.9251615707                            ;
 J10_24                  49.212598425    7.9251615707                            ;
 J11_0                   50.853018373    7.9251615707                            ;
 J11_1                   50.853018373    7.9251615707                            ;
 J11_2                   50.853018373    7.9251615707                            ;
 J11_3                   50.853018373    7.9251615707                            ;
 J11_4                   50.853018373    7.9251615707                            ;
 J11_5                   50.853018373    7.9251615707                            ;
 J11_6                   50.853018373    7.9251615707                            ;
 J11_7                   50.853018373    7.9251615707                            ;
 J11_8                   50.853018373    7.9251615707                            ;
 J11_9                   50.853018373    7.9251615707                            ;
 J11_10                  50.853018373    7.9251615707                            ;
 J11_11                  50.853018373    7.9251615707                            ;
 J11_12                  50.853018373    7.9251615707                            ;
 J11_13                  50.853018373    7.9251615707                            ;
 J11_14                  50.853018373    7.9251615707                            ;
 J11_15                  50.853018373    7.9251615707                            ;
 J11_16                  50.853018373    7.9251615707                            ;
 J11_17                  50.853018373    7.9251615707                            ;
 J11_18                  50.853018373    7.9251615707                            ;
 J11_19                  50.853018373    7.9251615707                            ;
 J11_20                  50.853018373    7.9251615707                            ;
 J11_21                  50.853018373    7.9251615707                            ;
 J11_22                  50.853018373    7.9251615707                            ;
 J11_23                  50.853018373    7.9251615707                            ;
 J11_24                  50.853018373    7.9251615707                            ;
 J12_0                    52.49343832    7.9251615707                            ;
 J12_1                    52.49343832    7.9251615707                            ;
 J12_2                    52.49343832    7.9251615707                            ;
 J12_3                    52.49343832    7.9251615707                            ;
 J12_4                    52.49343832    7.9251615707                            ;
 J12_5                    52.49343832    7.9251615707                            ;
 J12_6                    52.49343832    7.9251615707                            ;
 J12_7                    52.49343832    7.9251615707                            ;
 J12_8                    52.49343832    7.9251615707                            ;
 J12_9                    52.49343832    7.9251615707                            ;
 J12_10                   52.49343832    7.9251615707                            ;
 J12_11                   52.49343832    7.9251615707                            ;
 J12_12                   52.49343832    7.9251615707                            ;
 J12_13                   52.49343832    7.9251615707                            ;
 J12_14                   52.49343832    7.9251615707                            ;
 J12_15                   52.49343832    7.9251615707                            ;
 J12_16                   52.49343832    7.9251615707                            ;
 J12_17                   52.49343832    7.9251615707                            ;
 J12_18                   52.49343832    7.9251615707                            ;
 J12_19                   52.49343832    7.9251615707                            ;
 J12_20                   52.49343832    7.9251615707                            ;
 J12_21                   52.49343832    7.9251615707                            ;
 J12_22                   52.49343832    7.9251615707                            ;
 J12_23                   52.49343832    7.9251615707                            ;
 J12_24                   52.49343832    7.9251615707                            ;
 J13_0                   54.133858268    7.9251615707                            ;
 J13_1                   54.133858268    7.9251615707                            ;
 J13_2                   54.133858268    7.9251615707                            ;
 J13_3                   54.133858268    7.9251615707                            ;
 J13_4                   54.133858268    7.9251615707                            ;
 J13_5                   54.133858268    7.9251615707                            ;
 J13_6                   54.133858268    7.9251615707                            ;
 J13_7                   54.133858268    7.9251615707                            ;
 J13_8                   54.133858268    7.9251615707                            ;
 J13_9                   54.133858268    7.9251615707                            ;
 J13_10                  54.133858268    7.9251615707                            ;
 J13_11                  54.133858268    7.9251615707                            ;
 J13_12                  54.133858268    7.9251615707                            ;
 J13_13                  54.133858268    7.9251615707                            ;
 J13_14                  54.133858268    7.9251615707                            ;
 J13_15                  54.133858268    7.9251615707                            ;
 J13_16                  54.133858268    7.9251615707                            ;
 J13_17                  54.133858268    7.9251615707                            ;
 J13_18                  54.133858268    7.9251615707                            ;
 J13_19                  54.133858268    7.9251615707                            ;
 J13_20                  54.133858268    7.9251615707                            ;
 J13_21                  54.133858268    7.9251615707                            ;
 J13_22                  54.133858268    7.9251615707                            ;
 J13_23                  54.133858268    7.9251615707                            ;
 J13_24                  54.133858268    7.9251615707                            ;
 J14_0                   55.774278215    7.9251615707                            ;
 J14_1                   55.774278215    7.9251615707                            ;
 J14_2                   55.774278215    7.9251615707                            ;
 J14_3                   55.774278215    7.9251615707                            ;
 J14_4                   55.774278215    7.9251615707                            ;
 J14_5                   55.774278215    7.9251615707                            ;
 J14_6                   55.774278215    7.9251615707                            ;
 J14_7                   55.774278215    7.9251615707                            ;
 J14_8                   55.774278215    7.9251615707                            ;
 J14_9                   55.774278215    7.9251615707                            ;